<?xml version="1.0" encoding="UTF-8" ?>
<routes xmlns="http://symfony.com/schema/routing"
        xmlns:xsi="http://www.w3.org/2001/XMLSchema-instance"
        xsi:schemaLocation="http://symfony.com/schema/routing
        http://symfony.com/schema/routing/routing-1.0.xsd">


    <route methods="GET" id="media.file_download" controller="Adeliom\EasyMediaBundle\Controller\MediaController::downloadFile" path="/media/download/{path}" >
        <requirement key="path">.+</requirement>
    </route>

</routes>
